<?xml version="1.0" encoding="UTF-8" standalone="yes"?>
<template encoding-version="1.3">
    <description></description>
    <groupId>c559c02b-0182-1000-68bc-4e25a1fa8f8d</groupId>
    <name>bus stop route</name>
    <snippet>
        <processGroups>
            <id>be6e7378-1eac-3405-0000-000000000000</id>
            <parentGroupId>d66eb515-db7b-3fe2-0000-000000000000</parentGroupId>
            <position>
                <x>0.0</x>
                <y>0.0</y>
            </position>
            <versionedComponentId>be6e7378-1eac-3405-a1b5-1a6dc168415d</versionedComponentId>
            <comments></comments>
            <contents>
                <connections>
                    <id>07ae456a-aa5c-3aea-0000-000000000000</id>
                    <parentGroupId>be6e7378-1eac-3405-0000-000000000000</parentGroupId>
                    <versionedComponentId>07ae456a-aa5c-3aea-b857-f59b7bc0a297</versionedComponentId>
                    <backPressureDataSizeThreshold>1 GB</backPressureDataSizeThreshold>
                    <backPressureObjectThreshold>10000</backPressureObjectThreshold>
                    <destination>
                        <groupId>be6e7378-1eac-3405-0000-000000000000</groupId>
                        <id>5f2c697f-b110-33a2-0000-000000000000</id>
                        <type>PROCESSOR</type>
                        <versionedComponentId>5f2c697f-b110-33a2-921e-c53d1a96e19c</versionedComponentId>
                    </destination>
                    <flowFileExpiration>0 sec</flowFileExpiration>
                    <labelIndex>1</labelIndex>
                    <loadBalanceCompression>DO_NOT_COMPRESS</loadBalanceCompression>
                    <loadBalancePartitionAttribute></loadBalancePartitionAttribute>
                    <loadBalanceStatus>LOAD_BALANCE_NOT_CONFIGURED</loadBalanceStatus>
                    <loadBalanceStrategy>DO_NOT_LOAD_BALANCE</loadBalanceStrategy>
                    <name></name>
                    <selectedRelationships>matched</selectedRelationships>
                    <source>
                        <groupId>be6e7378-1eac-3405-0000-000000000000</groupId>
                        <id>f32f3bb3-b773-3682-0000-000000000000</id>
                        <type>PROCESSOR</type>
                        <versionedComponentId>f32f3bb3-b773-3682-a58c-8c7bed156dd9</versionedComponentId>
                    </source>
                    <zIndex>0</zIndex>
                </connections>
                <connections>
                    <id>0e698ec4-4c34-36fd-0000-000000000000</id>
                    <parentGroupId>be6e7378-1eac-3405-0000-000000000000</parentGroupId>
                    <versionedComponentId>0e698ec4-4c34-36fd-9d40-fe8be6245b8e</versionedComponentId>
                    <backPressureDataSizeThreshold>1 GB</backPressureDataSizeThreshold>
                    <backPressureObjectThreshold>10000</backPressureObjectThreshold>
                    <bends>
                        <x>288.0</x>
                        <y>336.0</y>
                    </bends>
                    <destination>
                        <groupId>be6e7378-1eac-3405-0000-000000000000</groupId>
                        <id>f32f3bb3-b773-3682-0000-000000000000</id>
                        <type>PROCESSOR</type>
                        <versionedComponentId>f32f3bb3-b773-3682-a58c-8c7bed156dd9</versionedComponentId>
                    </destination>
                    <flowFileExpiration>0 sec</flowFileExpiration>
                    <labelIndex>0</labelIndex>
                    <loadBalanceCompression>DO_NOT_COMPRESS</loadBalanceCompression>
                    <loadBalancePartitionAttribute></loadBalancePartitionAttribute>
                    <loadBalanceStatus>LOAD_BALANCE_NOT_CONFIGURED</loadBalanceStatus>
                    <loadBalanceStrategy>DO_NOT_LOAD_BALANCE</loadBalanceStrategy>
                    <name></name>
                    <selectedRelationships>split</selectedRelationships>
                    <source>
                        <groupId>be6e7378-1eac-3405-0000-000000000000</groupId>
                        <id>ced407d7-1713-3b0e-0000-000000000000</id>
                        <type>PROCESSOR</type>
                        <versionedComponentId>ced407d7-1713-3b0e-8d31-f833c5ad21c4</versionedComponentId>
                    </source>
                    <zIndex>0</zIndex>
                </connections>
                <connections>
                    <id>10bd6507-799f-3637-0000-000000000000</id>
                    <parentGroupId>be6e7378-1eac-3405-0000-000000000000</parentGroupId>
                    <versionedComponentId>10bd6507-799f-3637-8878-fc60f49b46ae</versionedComponentId>
                    <backPressureDataSizeThreshold>1 GB</backPressureDataSizeThreshold>
                    <backPressureObjectThreshold>10000</backPressureObjectThreshold>
                    <bends>
                        <x>280.0</x>
                        <y>600.0</y>
                    </bends>
                    <destination>
                        <groupId>be6e7378-1eac-3405-0000-000000000000</groupId>
                        <id>f041e20f-f048-3f37-0000-000000000000</id>
                        <type>PROCESSOR</type>
                        <versionedComponentId>f041e20f-f048-3f37-aa98-3bb4392bffe0</versionedComponentId>
                    </destination>
                    <flowFileExpiration>0 sec</flowFileExpiration>
                    <labelIndex>0</labelIndex>
                    <loadBalanceCompression>DO_NOT_COMPRESS</loadBalanceCompression>
                    <loadBalancePartitionAttribute></loadBalancePartitionAttribute>
                    <loadBalanceStatus>LOAD_BALANCE_NOT_CONFIGURED</loadBalanceStatus>
                    <loadBalanceStrategy>DO_NOT_LOAD_BALANCE</loadBalanceStrategy>
                    <name></name>
                    <selectedRelationships>split</selectedRelationships>
                    <source>
                        <groupId>be6e7378-1eac-3405-0000-000000000000</groupId>
                        <id>4e119630-eb31-32ca-0000-000000000000</id>
                        <type>PROCESSOR</type>
                        <versionedComponentId>4e119630-eb31-32ca-8f11-0b9018a89055</versionedComponentId>
                    </source>
                    <zIndex>0</zIndex>
                </connections>
                <connections>
                    <id>2a2aa512-e601-3ef1-0000-000000000000</id>
                    <parentGroupId>be6e7378-1eac-3405-0000-000000000000</parentGroupId>
                    <versionedComponentId>2a2aa512-e601-3ef1-8ceb-e6ea741fe5ad</versionedComponentId>
                    <backPressureDataSizeThreshold>1 GB</backPressureDataSizeThreshold>
                    <backPressureObjectThreshold>10000</backPressureObjectThreshold>
                    <bends>
                        <x>288.0</x>
                        <y>880.0</y>
                    </bends>
                    <destination>
                        <groupId>be6e7378-1eac-3405-0000-000000000000</groupId>
                        <id>238f4c89-2df9-30ac-0000-000000000000</id>
                        <type>PROCESSOR</type>
                        <versionedComponentId>238f4c89-2df9-30ac-b6a3-36b97d8c13ef</versionedComponentId>
                    </destination>
                    <flowFileExpiration>0 sec</flowFileExpiration>
                    <labelIndex>0</labelIndex>
                    <loadBalanceCompression>DO_NOT_COMPRESS</loadBalanceCompression>
                    <loadBalancePartitionAttribute></loadBalancePartitionAttribute>
                    <loadBalanceStatus>LOAD_BALANCE_NOT_CONFIGURED</loadBalanceStatus>
                    <loadBalanceStrategy>DO_NOT_LOAD_BALANCE</loadBalanceStrategy>
                    <name></name>
                    <selectedRelationships>isRouteStop</selectedRelationships>
                    <source>
                        <groupId>be6e7378-1eac-3405-0000-000000000000</groupId>
                        <id>d10e7b0c-b521-3c65-0000-000000000000</id>
                        <type>PROCESSOR</type>
                        <versionedComponentId>d10e7b0c-b521-3c65-aa60-1abe0cba0e0f</versionedComponentId>
                    </source>
                    <zIndex>0</zIndex>
                </connections>
                <connections>
                    <id>616f7964-f797-387f-0000-000000000000</id>
                    <parentGroupId>be6e7378-1eac-3405-0000-000000000000</parentGroupId>
                    <versionedComponentId>616f7964-f797-387f-bdf6-cb95cf915b70</versionedComponentId>
                    <backPressureDataSizeThreshold>1 GB</backPressureDataSizeThreshold>
                    <backPressureObjectThreshold>10000</backPressureObjectThreshold>
                    <bends>
                        <x>288.0</x>
                        <y>1016.0</y>
                    </bends>
                    <destination>
                        <groupId>be6e7378-1eac-3405-0000-000000000000</groupId>
                        <id>4db2e559-76ae-39c4-0000-000000000000</id>
                        <type>PROCESSOR</type>
                        <versionedComponentId>4db2e559-76ae-39c4-ac9a-5276c765c6df</versionedComponentId>
                    </destination>
                    <flowFileExpiration>0 sec</flowFileExpiration>
                    <labelIndex>0</labelIndex>
                    <loadBalanceCompression>DO_NOT_COMPRESS</loadBalanceCompression>
                    <loadBalancePartitionAttribute></loadBalancePartitionAttribute>
                    <loadBalanceStatus>LOAD_BALANCE_NOT_CONFIGURED</loadBalanceStatus>
                    <loadBalanceStrategy>DO_NOT_LOAD_BALANCE</loadBalanceStrategy>
                    <name></name>
                    <selectedRelationships>success</selectedRelationships>
                    <source>
                        <groupId>be6e7378-1eac-3405-0000-000000000000</groupId>
                        <id>238f4c89-2df9-30ac-0000-000000000000</id>
                        <type>PROCESSOR</type>
                        <versionedComponentId>238f4c89-2df9-30ac-b6a3-36b97d8c13ef</versionedComponentId>
                    </source>
                    <zIndex>0</zIndex>
                </connections>
                <connections>
                    <id>74ca09a8-7968-3769-0000-000000000000</id>
                    <parentGroupId>be6e7378-1eac-3405-0000-000000000000</parentGroupId>
                    <versionedComponentId>74ca09a8-7968-3769-9618-d3350dc457ec</versionedComponentId>
                    <backPressureDataSizeThreshold>1 GB</backPressureDataSizeThreshold>
                    <backPressureObjectThreshold>10000</backPressureObjectThreshold>
                    <bends>
                        <x>304.0</x>
                        <y>184.0</y>
                    </bends>
                    <destination>
                        <groupId>be6e7378-1eac-3405-0000-000000000000</groupId>
                        <id>ced407d7-1713-3b0e-0000-000000000000</id>
                        <type>PROCESSOR</type>
                        <versionedComponentId>ced407d7-1713-3b0e-8d31-f833c5ad21c4</versionedComponentId>
                    </destination>
                    <flowFileExpiration>0 sec</flowFileExpiration>
                    <labelIndex>0</labelIndex>
                    <loadBalanceCompression>DO_NOT_COMPRESS</loadBalanceCompression>
                    <loadBalancePartitionAttribute></loadBalancePartitionAttribute>
                    <loadBalanceStatus>LOAD_BALANCE_NOT_CONFIGURED</loadBalanceStatus>
                    <loadBalanceStrategy>DO_NOT_LOAD_BALANCE</loadBalanceStrategy>
                    <name></name>
                    <selectedRelationships>Response</selectedRelationships>
                    <source>
                        <groupId>be6e7378-1eac-3405-0000-000000000000</groupId>
                        <id>c54daf23-5cdc-3b28-0000-000000000000</id>
                        <type>PROCESSOR</type>
                        <versionedComponentId>c54daf23-5cdc-3b28-9daf-d2fcb258f558</versionedComponentId>
                    </source>
                    <zIndex>0</zIndex>
                </connections>
                <connections>
                    <id>7f2a485f-3a12-3b1b-0000-000000000000</id>
                    <parentGroupId>be6e7378-1eac-3405-0000-000000000000</parentGroupId>
                    <versionedComponentId>7f2a485f-3a12-3b1b-8b52-03862993487a</versionedComponentId>
                    <backPressureDataSizeThreshold>1 GB</backPressureDataSizeThreshold>
                    <backPressureObjectThreshold>10000</backPressureObjectThreshold>
                    <destination>
                        <groupId>be6e7378-1eac-3405-0000-000000000000</groupId>
                        <id>cdc374fe-f7ae-3572-0000-000000000000</id>
                        <type>PROCESSOR</type>
                        <versionedComponentId>cdc374fe-f7ae-3572-9ff6-02b8ee28d993</versionedComponentId>
                    </destination>
                    <flowFileExpiration>0 sec</flowFileExpiration>
                    <labelIndex>1</labelIndex>
                    <loadBalanceCompression>DO_NOT_COMPRESS</loadBalanceCompression>
                    <loadBalancePartitionAttribute></loadBalancePartitionAttribute>
                    <loadBalanceStatus>LOAD_BALANCE_NOT_CONFIGURED</loadBalanceStatus>
                    <loadBalanceStrategy>DO_NOT_LOAD_BALANCE</loadBalanceStrategy>
                    <name></name>
                    <selectedRelationships>success</selectedRelationships>
                    <source>
                        <groupId>be6e7378-1eac-3405-0000-000000000000</groupId>
                        <id>c8324ede-9a5e-3402-0000-000000000000</id>
                        <type>PROCESSOR</type>
                        <versionedComponentId>c8324ede-9a5e-3402-b202-4bb9102b78ee</versionedComponentId>
                    </source>
                    <zIndex>0</zIndex>
                </connections>
                <connections>
                    <id>8282814d-e4e3-30a0-0000-000000000000</id>
                    <parentGroupId>be6e7378-1eac-3405-0000-000000000000</parentGroupId>
                    <versionedComponentId>8282814d-e4e3-30a0-aff5-9fbc58a6731d</versionedComponentId>
                    <backPressureDataSizeThreshold>1 GB</backPressureDataSizeThreshold>
                    <backPressureObjectThreshold>10000</backPressureObjectThreshold>
                    <bends>
                        <x>272.0</x>
                        <y>1144.0</y>
                    </bends>
                    <destination>
                        <groupId>be6e7378-1eac-3405-0000-000000000000</groupId>
                        <id>c8324ede-9a5e-3402-0000-000000000000</id>
                        <type>PROCESSOR</type>
                        <versionedComponentId>c8324ede-9a5e-3402-b202-4bb9102b78ee</versionedComponentId>
                    </destination>
                    <flowFileExpiration>0 sec</flowFileExpiration>
                    <labelIndex>0</labelIndex>
                    <loadBalanceCompression>DO_NOT_COMPRESS</loadBalanceCompression>
                    <loadBalancePartitionAttribute></loadBalancePartitionAttribute>
                    <loadBalanceStatus>LOAD_BALANCE_NOT_CONFIGURED</loadBalanceStatus>
                    <loadBalanceStrategy>DO_NOT_LOAD_BALANCE</loadBalanceStrategy>
                    <name></name>
                    <selectedRelationships>success</selectedRelationships>
                    <source>
                        <groupId>be6e7378-1eac-3405-0000-000000000000</groupId>
                        <id>4db2e559-76ae-39c4-0000-000000000000</id>
                        <type>PROCESSOR</type>
                        <versionedComponentId>4db2e559-76ae-39c4-ac9a-5276c765c6df</versionedComponentId>
                    </source>
                    <zIndex>0</zIndex>
                </connections>
                <connections>
                    <id>aaa1f351-f198-36fb-0000-000000000000</id>
                    <parentGroupId>be6e7378-1eac-3405-0000-000000000000</parentGroupId>
                    <versionedComponentId>aaa1f351-f198-36fb-94cf-0405711146f6</versionedComponentId>
                    <backPressureDataSizeThreshold>1 GB</backPressureDataSizeThreshold>
                    <backPressureObjectThreshold>10000</backPressureObjectThreshold>
                    <destination>
                        <groupId>be6e7378-1eac-3405-0000-000000000000</groupId>
                        <id>6cb8363f-dbc4-30d6-0000-000000000000</id>
                        <type>PROCESSOR</type>
                        <versionedComponentId>6cb8363f-dbc4-30d6-b79f-4dea1734ee8c</versionedComponentId>
                    </destination>
                    <flowFileExpiration>0 sec</flowFileExpiration>
                    <labelIndex>1</labelIndex>
                    <loadBalanceCompression>DO_NOT_COMPRESS</loadBalanceCompression>
                    <loadBalancePartitionAttribute></loadBalancePartitionAttribute>
                    <loadBalanceStatus>LOAD_BALANCE_NOT_CONFIGURED</loadBalanceStatus>
                    <loadBalanceStrategy>DO_NOT_LOAD_BALANCE</loadBalanceStrategy>
                    <name></name>
                    <selectedRelationships>isRouteStop</selectedRelationships>
                    <source>
                        <groupId>be6e7378-1eac-3405-0000-000000000000</groupId>
                        <id>d10e7b0c-b521-3c65-0000-000000000000</id>
                        <type>PROCESSOR</type>
                        <versionedComponentId>d10e7b0c-b521-3c65-aa60-1abe0cba0e0f</versionedComponentId>
                    </source>
                    <zIndex>0</zIndex>
                </connections>
                <connections>
                    <id>cd378267-2f1d-3c1a-0000-000000000000</id>
                    <parentGroupId>be6e7378-1eac-3405-0000-000000000000</parentGroupId>
                    <versionedComponentId>cd378267-2f1d-3c1a-a0d4-8511412132b3</versionedComponentId>
                    <backPressureDataSizeThreshold>1 GB</backPressureDataSizeThreshold>
                    <backPressureObjectThreshold>10000</backPressureObjectThreshold>
                    <bends>
                        <x>288.0</x>
                        <y>448.0</y>
                    </bends>
                    <destination>
                        <groupId>be6e7378-1eac-3405-0000-000000000000</groupId>
                        <id>4e119630-eb31-32ca-0000-000000000000</id>
                        <type>PROCESSOR</type>
                        <versionedComponentId>4e119630-eb31-32ca-8f11-0b9018a89055</versionedComponentId>
                    </destination>
                    <flowFileExpiration>0 sec</flowFileExpiration>
                    <labelIndex>0</labelIndex>
                    <loadBalanceCompression>DO_NOT_COMPRESS</loadBalanceCompression>
                    <loadBalancePartitionAttribute></loadBalancePartitionAttribute>
                    <loadBalanceStatus>LOAD_BALANCE_NOT_CONFIGURED</loadBalanceStatus>
                    <loadBalanceStrategy>DO_NOT_LOAD_BALANCE</loadBalanceStrategy>
                    <name></name>
                    <selectedRelationships>matched</selectedRelationships>
                    <source>
                        <groupId>be6e7378-1eac-3405-0000-000000000000</groupId>
                        <id>f32f3bb3-b773-3682-0000-000000000000</id>
                        <type>PROCESSOR</type>
                        <versionedComponentId>f32f3bb3-b773-3682-a58c-8c7bed156dd9</versionedComponentId>
                    </source>
                    <zIndex>0</zIndex>
                </connections>
                <connections>
                    <id>eb82cc9b-daf6-321b-0000-000000000000</id>
                    <parentGroupId>be6e7378-1eac-3405-0000-000000000000</parentGroupId>
                    <versionedComponentId>eb82cc9b-daf6-321b-9917-889f32757534</versionedComponentId>
                    <backPressureDataSizeThreshold>1 GB</backPressureDataSizeThreshold>
                    <backPressureObjectThreshold>10000</backPressureObjectThreshold>
                    <bends>
                        <x>280.0</x>
                        <y>744.0</y>
                    </bends>
                    <destination>
                        <groupId>be6e7378-1eac-3405-0000-000000000000</groupId>
                        <id>d10e7b0c-b521-3c65-0000-000000000000</id>
                        <type>PROCESSOR</type>
                        <versionedComponentId>d10e7b0c-b521-3c65-aa60-1abe0cba0e0f</versionedComponentId>
                    </destination>
                    <flowFileExpiration>0 sec</flowFileExpiration>
                    <labelIndex>0</labelIndex>
                    <loadBalanceCompression>DO_NOT_COMPRESS</loadBalanceCompression>
                    <loadBalancePartitionAttribute></loadBalancePartitionAttribute>
                    <loadBalanceStatus>LOAD_BALANCE_NOT_CONFIGURED</loadBalanceStatus>
                    <loadBalanceStrategy>DO_NOT_LOAD_BALANCE</loadBalanceStrategy>
                    <name></name>
                    <selectedRelationships>matched</selectedRelationships>
                    <source>
                        <groupId>be6e7378-1eac-3405-0000-000000000000</groupId>
                        <id>f041e20f-f048-3f37-0000-000000000000</id>
                        <type>PROCESSOR</type>
                        <versionedComponentId>f041e20f-f048-3f37-aa98-3bb4392bffe0</versionedComponentId>
                    </source>
                    <zIndex>0</zIndex>
                </connections>
                <processors>
                    <id>238f4c89-2df9-30ac-0000-000000000000</id>
                    <parentGroupId>be6e7378-1eac-3405-0000-000000000000</parentGroupId>
                    <position>
                        <x>416.0</x>
                        <y>888.0</y>
                    </position>
                    <versionedComponentId>238f4c89-2df9-30ac-b6a3-36b97d8c13ef</versionedComponentId>
                    <bundle>
                        <artifact>nifi-update-attribute-nar</artifact>
                        <group>org.apache.nifi</group>
                        <version>1.17.0</version>
                    </bundle>
                    <config>
                        <backoffMechanism>PENALIZE_FLOWFILE</backoffMechanism>
                        <bulletinLevel>WARN</bulletinLevel>
                        <comments></comments>
                        <concurrentlySchedulableTaskCount>1</concurrentlySchedulableTaskCount>
                        <descriptors>
                            <entry>
<key>Delete Attributes Expression</key>
<value>
    <name>Delete Attributes Expression</name>
</value>
                            </entry>
                            <entry>
<key>Store State</key>
<value>
    <name>Store State</name>
</value>
                            </entry>
                            <entry>
<key>Stateful Variables Initial Value</key>
<value>
    <name>Stateful Variables Initial Value</name>
</value>
                            </entry>
                            <entry>
<key>canonical-value-lookup-cache-size</key>
<value>
    <name>canonical-value-lookup-cache-size</name>
</value>
                            </entry>
                            <entry>
<key>geo_location</key>
<value>
    <name>geo_location</name>
</value>
                            </entry>
                        </descriptors>
                        <executionNode>ALL</executionNode>
                        <lossTolerant>false</lossTolerant>
                        <maxBackoffPeriod>10 mins</maxBackoffPeriod>
                        <penaltyDuration>30 sec</penaltyDuration>
                        <properties>
                            <entry>
<key>Delete Attributes Expression</key>
                            </entry>
                            <entry>
<key>Store State</key>
<value>Do not store state</value>
                            </entry>
                            <entry>
<key>Stateful Variables Initial Value</key>
                            </entry>
                            <entry>
<key>canonical-value-lookup-cache-size</key>
<value>100</value>
                            </entry>
                            <entry>
<key>geo_location</key>
<value>${allAttributes('lat','long'):join(',')}</value>
                            </entry>
                        </properties>
                        <retryCount>10</retryCount>
                        <runDurationMillis>0</runDurationMillis>
                        <schedulingPeriod>0 sec</schedulingPeriod>
                        <schedulingStrategy>TIMER_DRIVEN</schedulingStrategy>
                        <yieldDuration>1 sec</yieldDuration>
                    </config>
                    <executionNodeRestricted>false</executionNodeRestricted>
                    <name>UpdateAttribute</name>
                    <relationships>
                        <autoTerminate>false</autoTerminate>
                        <name>success</name>
                        <retry>false</retry>
                    </relationships>
                    <state>STOPPED</state>
                    <style/>
                    <type>org.apache.nifi.processors.attributes.UpdateAttribute</type>
                </processors>
                <processors>
                    <id>4db2e559-76ae-39c4-0000-000000000000</id>
                    <parentGroupId>be6e7378-1eac-3405-0000-000000000000</parentGroupId>
                    <position>
                        <x>416.0</x>
                        <y>1024.0</y>
                    </position>
                    <versionedComponentId>4db2e559-76ae-39c4-ac9a-5276c765c6df</versionedComponentId>
                    <bundle>
                        <artifact>nifi-standard-nar</artifact>
                        <group>org.apache.nifi</group>
                        <version>1.17.0</version>
                    </bundle>
                    <config>
                        <backoffMechanism>PENALIZE_FLOWFILE</backoffMechanism>
                        <bulletinLevel>WARN</bulletinLevel>
                        <comments></comments>
                        <concurrentlySchedulableTaskCount>1</concurrentlySchedulableTaskCount>
                        <descriptors>
                            <entry>
<key>Attributes List</key>
<value>
    <name>Attributes List</name>
</value>
                            </entry>
                            <entry>
<key>attributes-to-json-regex</key>
<value>
    <name>attributes-to-json-regex</name>
</value>
                            </entry>
                            <entry>
<key>Destination</key>
<value>
    <name>Destination</name>
</value>
                            </entry>
                            <entry>
<key>Include Core Attributes</key>
<value>
    <name>Include Core Attributes</name>
</value>
                            </entry>
                            <entry>
<key>Null Value</key>
<value>
    <name>Null Value</name>
</value>
                            </entry>
                        </descriptors>
                        <executionNode>ALL</executionNode>
                        <lossTolerant>false</lossTolerant>
                        <maxBackoffPeriod>10 mins</maxBackoffPeriod>
                        <penaltyDuration>30 sec</penaltyDuration>
                        <properties>
                            <entry>
<key>Attributes List</key>
<value>id,lat,long,tag,title,routeTag,routeTitle</value>
                            </entry>
                            <entry>
<key>attributes-to-json-regex</key>
<value>geo_.*</value>
                            </entry>
                            <entry>
<key>Destination</key>
<value>flowfile-content</value>
                            </entry>
                            <entry>
<key>Include Core Attributes</key>
<value>true</value>
                            </entry>
                            <entry>
<key>Null Value</key>
<value>false</value>
                            </entry>
                        </properties>
                        <retryCount>10</retryCount>
                        <runDurationMillis>0</runDurationMillis>
                        <schedulingPeriod>0 sec</schedulingPeriod>
                        <schedulingStrategy>TIMER_DRIVEN</schedulingStrategy>
                        <yieldDuration>1 sec</yieldDuration>
                    </config>
                    <executionNodeRestricted>false</executionNodeRestricted>
                    <name>AttributesToJSON</name>
                    <relationships>
                        <autoTerminate>true</autoTerminate>
                        <name>failure</name>
                        <retry>false</retry>
                    </relationships>
                    <relationships>
                        <autoTerminate>false</autoTerminate>
                        <name>success</name>
                        <retry>false</retry>
                    </relationships>
                    <state>STOPPED</state>
                    <style/>
                    <type>org.apache.nifi.processors.standard.AttributesToJSON</type>
                </processors>
                <processors>
                    <id>4e119630-eb31-32ca-0000-000000000000</id>
                    <parentGroupId>be6e7378-1eac-3405-0000-000000000000</parentGroupId>
                    <position>
                        <x>416.0</x>
                        <y>472.0</y>
                    </position>
                    <versionedComponentId>4e119630-eb31-32ca-8f11-0b9018a89055</versionedComponentId>
                    <bundle>
                        <artifact>nifi-standard-nar</artifact>
                        <group>org.apache.nifi</group>